MODEL 1
REMARK VINA RESULT:     -13.0      0.000      0.000
REMARK  7 active torsions:
REMARK  status: ('A' for Active; 'I' for Inactive)
REMARK    1  A    between atoms: C5_5  and  C7_7 
REMARK    2  A    between atoms: C9_9  and  N13_13 
REMARK    3  A    between atoms: N13_13  and  C14_14 
REMARK    4  A    between atoms: C16_16  and  N21_21 
REMARK       I    between atoms: N21_21  and  C22_22 
REMARK    5  A    between atoms: C22_22  and  C23_23 
REMARK    6  A    between atoms: C27_26  and  C46_30 
REMARK    7  A    between atoms: C46_30  and  N48_31 
ROOT
HETATM    1  C1  STI   202      16.307 100.525  50.500  1.00  0.00    -0.001 A 
HETATM    2  C2  STI   202      17.306 101.356  51.109  1.00  0.00     0.095 A 
HETATM    3  N3  STI   202      17.174 101.754  52.443  1.00  0.00    -0.243 NA
HETATM    4  C4  STI   202      16.095 101.377  53.237  1.00  0.00     0.097 A 
HETATM    5  C5  STI   202      15.047 100.536  52.689  1.00  0.00     0.020 A 
HETATM    6  C6  STI   202      15.172 100.116  51.298  1.00  0.00     0.057 A 
ENDROOT
BRANCH   5   7
HETATM    7  C7  STI   202      13.891 100.145  53.562  1.00  0.00     0.099 A 
HETATM    8  N8  STI   202      14.065 100.265  54.927  1.00  0.00    -0.061 NA
HETATM    9  C9  STI   202      13.080  99.942  55.811  1.00  0.00     0.728 A 
HETATM   10  N10 STI   202      11.861  99.479  55.345  1.00  0.00    -0.059 NA
HETATM   11  C11 STI   202      11.626  99.338  53.988  1.00  0.00     0.120 A 
HETATM   12  C12 STI   202      12.634  99.668  53.046  1.00  0.00     0.041 A 
BRANCH   9  13
HETATM   13  N13 STI   202      13.349 100.100  57.174  1.00  0.00    -0.190 N 
HETATM   14  H   STI   202      14.342 100.403  57.476  1.00  0.00     0.184 HD
BRANCH  13  15
HETATM   15  C14 STI   202      12.378  99.879  58.166  1.00  0.00     0.052 A 
HETATM   16  C15 STI   202      12.460  98.688  58.952  1.00  0.00     0.087 A 
HETATM   17  C16 STI   202      11.480  98.411  60.004  1.00  0.00     0.042 A 
HETATM   18  C17 STI   202      10.441  99.356  60.226  1.00  0.00     0.013 A 
HETATM   19  C18 STI   202      10.348 100.561  59.441  1.00  0.00    -0.002 A 
HETATM   20  C19 STI   202      11.303 100.848  58.406  1.00  0.00    -0.009 A 
HETATM   21  C20 STI   202      11.140 102.165  57.612  1.00  0.00     0.032 C 
BRANCH  17  22
HETATM   22  N21 STI   202      11.499  97.235  60.842  1.00  0.00    -0.325 N 
HETATM   23  C22 STI   202      12.526  96.333  61.037  1.00  0.00     0.253 C 
HETATM   24  O29 STI   202      13.526  96.265  60.349  1.00  0.00    -0.268 OA
HETATM   25  H   STI   202      10.587  97.034  61.389  1.00  0.00     0.169 HD
BRANCH  23  26
HETATM   26  C23 STI   202      12.423  95.347  62.154  1.00  0.00     0.034 A 
HETATM   27  C25 STI   202      13.573  94.531  62.544  1.00  0.00     0.036 A 
HETATM   28  C26 STI   202      13.442  93.574  63.612  1.00  0.00     0.029 A 
HETATM   29  C27 STI   202      12.166  93.430  64.292  1.00  0.00    -0.011 A 
HETATM   30  C28 STI   202      11.044  94.253  63.890  1.00  0.00    -0.007 A 
HETATM   31  C29 STI   202      11.164  95.193  62.844  1.00  0.00    -0.000 A 
BRANCH  29  32
HETATM   32  C46 STI   202      11.942  92.419  65.421  1.00  0.00     0.273 C 
BRANCH  32  33
HETATM   33  N48 STI   202      10.696  91.598  65.383  1.00  0.00     0.145 N 
HETATM   34  C49 STI   202      10.457  90.878  66.707  1.00  0.00     0.286 C 
HETATM   35  C50 STI   202       9.146  90.035  66.666  1.00  0.00     0.286 C 
HETATM   36  N51 STI   202       9.223  89.040  65.518  1.00  0.00     0.143 N 
HETATM   37  C52 STI   202       9.453  89.750  64.194  1.00  0.00     0.286 C 
HETATM   38  C54 STI   202       8.014  88.198  65.522  1.00  0.00     0.285 C 
HETATM   39  C53 STI   202      10.743  90.609  64.254  1.00  0.00     0.286 C 
ENDBRANCH  32  33
ENDBRANCH  29  32
ENDBRANCH  23  26
ENDBRANCH  17  22
ENDBRANCH  13  15
ENDBRANCH   9  13
ENDBRANCH   5   7
TORSDOF 7
ENDMDL
MODEL 2
REMARK VINA RESULT:     -10.7      2.955     12.542
REMARK  7 active torsions:
REMARK  status: ('A' for Active; 'I' for Inactive)
REMARK    1  A    between atoms: C5_5  and  C7_7 
REMARK    2  A    between atoms: C9_9  and  N13_13 
REMARK    3  A    between atoms: N13_13  and  C14_14 
REMARK    4  A    between atoms: C16_16  and  N21_21 
REMARK       I    between atoms: N21_21  and  C22_22 
REMARK    5  A    between atoms: C22_22  and  C23_23 
REMARK    6  A    between atoms: C27_26  and  C46_30 
REMARK    7  A    between atoms: C46_30  and  N48_31 
ROOT
HETATM    1  C1  STI   202       4.623  93.873  60.866  1.00  0.00    -0.001 A 
HETATM    2  C2  STI   202       4.379  92.875  59.863  1.00  0.00     0.095 A 
HETATM    3  N3  STI   202       5.182  91.732  59.796  1.00  0.00    -0.243 NA
HETATM    4  C4  STI   202       6.235  91.500  60.675  1.00  0.00     0.097 A 
HETATM    5  C5  STI   202       6.540  92.465  61.715  1.00  0.00     0.020 A 
HETATM    6  C6  STI   202       5.712  93.663  61.795  1.00  0.00     0.057 A 
ENDROOT
BRANCH   5   7
HETATM    7  C7  STI   202       7.684  92.197  62.649  1.00  0.00     0.099 A 
HETATM    8  N8  STI   202       8.484  93.270  62.988  1.00  0.00    -0.061 NA
HETATM    9  C9  STI   202       9.546  93.142  63.831  1.00  0.00     0.728 A 
HETATM   10  N10 STI   202       9.847  91.904  64.375  1.00  0.00    -0.059 NA
HETATM   11  C11 STI   202       9.082  90.789  64.073  1.00  0.00     0.120 A 
HETATM   12  C12 STI   202       7.971  90.897  63.198  1.00  0.00     0.041 A 
BRANCH   9  13
HETATM   13  N13 STI   202      10.294  94.287  64.118  1.00  0.00    -0.190 N 
HETATM   14  H   STI   202       9.961  94.940  64.914  1.00  0.00     0.184 HD
BRANCH  13  15
HETATM   15  C14 STI   202      11.463  94.622  63.413  1.00  0.00     0.052 A 
HETATM   16  C15 STI   202      11.340  95.366  62.198  1.00  0.00     0.087 A 
HETATM   17  C16 STI   202      12.523  95.749  61.426  1.00  0.00     0.042 A 
HETATM   18  C17 STI   202      13.802  95.362  61.913  1.00  0.00     0.013 A 
HETATM   19  C18 STI   202      13.940  94.614  63.137  1.00  0.00    -0.002 A 
HETATM   20  C19 STI   202      12.787  94.232  63.906  1.00  0.00    -0.009 A 
HETATM   21  C20 STI   202      13.017  93.435  65.212  1.00  0.00     0.032 C 
BRANCH  17  22
HETATM   22  N21 STI   202      12.481  96.502  60.195  1.00  0.00    -0.325 N 
HETATM   23  C22 STI   202      11.869  97.716  59.947  1.00  0.00     0.253 C 
HETATM   24  O29 STI   202      11.065  98.248  60.688  1.00  0.00    -0.268 OA
HETATM   25  H   STI   202      12.998  96.057  59.354  1.00  0.00     0.169 HD
BRANCH  23  26
HETATM   26  C23 STI   202      12.183  98.442  58.681  1.00  0.00     0.034 A 
HETATM   27  C25 STI   202      13.555  98.839  58.362  1.00  0.00     0.036 A 
HETATM   28  C26 STI   202      13.827  99.556  57.143  1.00  0.00     0.029 A 
HETATM   29  C27 STI   202      12.734  99.877  56.242  1.00  0.00    -0.011 A 
HETATM   30  C28 STI   202      11.386  99.470  56.579  1.00  0.00    -0.007 A 
HETATM   31  C29 STI   202      11.110  98.767  57.771  1.00  0.00    -0.000 A 
BRANCH  29  32
HETATM   32  C46 STI   202      12.941 100.656  54.939  1.00  0.00     0.273 C 
BRANCH  32  33
HETATM   33  N48 STI   202      14.126 100.306  54.100  1.00  0.00     0.145 N 
HETATM   34  C49 STI   202      15.216 101.368  54.197  1.00  0.00     0.286 C 
HETATM   35  C50 STI   202      16.456 100.990  53.331  1.00  0.00     0.286 C 
HETATM   36  N51 STI   202      16.020 100.795  51.886  1.00  0.00     0.143 N 
HETATM   37  C52 STI   202      14.938  99.731  51.780  1.00  0.00     0.286 C 
HETATM   38  C54 STI   202      17.202 100.503  51.057  1.00  0.00     0.285 C 
HETATM   39  C53 STI   202      13.722 100.103  52.668  1.00  0.00     0.286 C 
ENDBRANCH  32  33
ENDBRANCH  29  32
ENDBRANCH  23  26
ENDBRANCH  17  22
ENDBRANCH  13  15
ENDBRANCH   9  13
ENDBRANCH   5   7
TORSDOF 7
ENDMDL
MODEL 3
REMARK VINA RESULT:     -10.7      2.565     12.545
REMARK  7 active torsions:
REMARK  status: ('A' for Active; 'I' for Inactive)
REMARK    1  A    between atoms: C5_5  and  C7_7 
REMARK    2  A    between atoms: C9_9  and  N13_13 
REMARK    3  A    between atoms: N13_13  and  C14_14 
REMARK    4  A    between atoms: C16_16  and  N21_21 
REMARK       I    between atoms: N21_21  and  C22_22 
REMARK    5  A    between atoms: C22_22  and  C23_23 
REMARK    6  A    between atoms: C27_26  and  C46_30 
REMARK    7  A    between atoms: C46_30  and  N48_31 
ROOT
HETATM    1  C1  STI   202       4.882  93.693  63.423  1.00  0.00    -0.001 A 
HETATM    2  C2  STI   202       5.020  93.881  62.007  1.00  0.00     0.095 A 
HETATM    3  N3  STI   202       6.168  93.435  61.345  1.00  0.00    -0.243 NA
HETATM    4  C4  STI   202       7.216  92.799  62.003  1.00  0.00     0.097 A 
HETATM    5  C5  STI   202       7.146  92.575  63.435  1.00  0.00     0.020 A 
HETATM    6  C6  STI   202       5.955  93.037  64.138  1.00  0.00     0.057 A 
ENDROOT
BRANCH   5   7
HETATM    7  C7  STI   202       8.290  91.891  64.126  1.00  0.00     0.099 A 
HETATM    8  N8  STI   202       9.380  92.670  64.459  1.00  0.00    -0.061 NA
HETATM    9  C9  STI   202      10.471  92.155  65.092  1.00  0.00     0.728 A 
HETATM   10  N10 STI   202      10.505  90.809  65.419  1.00  0.00    -0.059 NA
HETATM   11  C11 STI   202       9.442  89.976  65.111  1.00  0.00     0.120 A 
HETATM   12  C12 STI   202       8.294  90.489  64.453  1.00  0.00     0.041 A 
BRANCH   9  13
HETATM   13  N13 STI   202      11.523  93.024  65.392  1.00  0.00    -0.190 N 
HETATM   14  H   STI   202      11.537  93.510  66.357  1.00  0.00     0.184 HD
BRANCH  13  15
HETATM   15  C14 STI   202      12.565  93.290  64.486  1.00  0.00     0.052 A 
HETATM   16  C15 STI   202      12.333  94.226  63.431  1.00  0.00     0.087 A 
HETATM   17  C16 STI   202      13.384  94.548  62.463  1.00  0.00     0.042 A 
HETATM   18  C17 STI   202      14.645  93.904  62.597  1.00  0.00     0.013 A 
HETATM   19  C18 STI   202      14.892  92.960  63.657  1.00  0.00    -0.002 A 
HETATM   20  C19 STI   202      13.870  92.636  64.615  1.00  0.00    -0.009 A 
HETATM   21  C20 STI   202      14.214  91.617  65.727  1.00  0.00     0.032 C 
BRANCH  17  22
HETATM   22  N21 STI   202      13.228  95.484  61.375  1.00  0.00    -0.325 N 
HETATM   23  C22 STI   202      12.204  96.385  61.154  1.00  0.00     0.253 C 
HETATM   24  O29 STI   202      11.139  96.377  61.739  1.00  0.00    -0.268 OA
HETATM   25  H   STI   202      14.018  95.480  60.636  1.00  0.00     0.169 HD
BRANCH  23  26
HETATM   26  C23 STI   202      12.381  97.444  60.117  1.00  0.00     0.034 A 
HETATM   27  C25 STI   202      11.445  98.564  60.018  1.00  0.00     0.036 A 
HETATM   28  C26 STI   202      11.627  99.562  58.996  1.00  0.00     0.029 A 
HETATM   29  C27 STI   202      12.743  99.445  58.073  1.00  0.00    -0.011 A 
HETATM   30  C28 STI   202      13.659  98.330  58.195  1.00  0.00    -0.007 A 
HETATM   31  C29 STI   202      13.487  97.347  59.193  1.00  0.00    -0.000 A 
BRANCH  29  32
HETATM   32  C46 STI   202      12.991 100.454  56.947  1.00  0.00     0.273 C 
BRANCH  32  33
HETATM   33  N48 STI   202      13.596  99.947  55.679  1.00  0.00     0.145 N 
HETATM   34  C49 STI   202      14.915 100.645  55.368  1.00  0.00     0.286 C 
HETATM   35  C50 STI   202      15.549 100.101  54.051  1.00  0.00     0.286 C 
HETATM   36  N51 STI   202      14.562 100.279  52.907  1.00  0.00     0.143 N 
HETATM   37  C52 STI   202      13.246  99.579  53.206  1.00  0.00     0.286 C 
HETATM   38  C54 STI   202      15.187  99.827  51.652  1.00  0.00     0.285 C 
HETATM   39  C53 STI   202      12.639 100.107  54.532  1.00  0.00     0.286 C 
ENDBRANCH  32  33
ENDBRANCH  29  32
ENDBRANCH  23  26
ENDBRANCH  17  22
ENDBRANCH  13  15
ENDBRANCH   9  13
ENDBRANCH   5   7
TORSDOF 7
ENDMDL
MODEL 4
REMARK VINA RESULT:     -10.4      3.262     13.570
REMARK  7 active torsions:
REMARK  status: ('A' for Active; 'I' for Inactive)
REMARK    1  A    between atoms: C5_5  and  C7_7 
REMARK    2  A    between atoms: C9_9  and  N13_13 
REMARK    3  A    between atoms: N13_13  and  C14_14 
REMARK    4  A    between atoms: C16_16  and  N21_21 
REMARK       I    between atoms: N21_21  and  C22_22 
REMARK    5  A    between atoms: C22_22  and  C23_23 
REMARK    6  A    between atoms: C27_26  and  C46_30 
REMARK    7  A    between atoms: C46_30  and  N48_31 
ROOT
HETATM    1  C1  STI   202       2.533  91.308  66.901  1.00  0.00    -0.001 A 
HETATM    2  C2  STI   202       2.803  89.908  67.063  1.00  0.00     0.095 A 
HETATM    3  N3  STI   202       3.758  89.276  66.261  1.00  0.00    -0.243 NA
HETATM    4  C4  STI   202       4.485  89.950  65.284  1.00  0.00     0.097 A 
HETATM    5  C5  STI   202       4.266  91.368  65.064  1.00  0.00     0.020 A 
HETATM    6  C6  STI   202       3.271  92.038  65.893  1.00  0.00     0.057 A 
ENDROOT
BRANCH   5   7
HETATM    7  C7  STI   202       5.057  92.075  64.002  1.00  0.00     0.099 A 
HETATM    8  N8  STI   202       6.410  91.803  63.941  1.00  0.00    -0.061 NA
HETATM    9  C9  STI   202       7.222  92.385  63.015  1.00  0.00     0.728 A 
HETATM   10  N10 STI   202       6.692  93.278  62.098  1.00  0.00    -0.059 NA
HETATM   11  C11 STI   202       5.342  93.591  62.109  1.00  0.00     0.120 A 
HETATM   12  C12 STI   202       4.475  92.998  63.063  1.00  0.00     0.041 A 
BRANCH   9  13
HETATM   13  N13 STI   202       8.577  92.044  63.029  1.00  0.00    -0.190 N 
HETATM   14  H   STI   202       8.862  91.033  62.772  1.00  0.00     0.184 HD
BRANCH  13  15
HETATM   15  C14 STI   202       9.584  92.965  63.365  1.00  0.00     0.052 A 
HETATM   16  C15 STI   202       9.894  94.011  62.441  1.00  0.00     0.087 A 
HETATM   17  C16 STI   202      10.928  95.003  62.743  1.00  0.00     0.042 A 
HETATM   18  C17 STI   202      11.622  94.900  63.980  1.00  0.00     0.013 A 
HETATM   19  C18 STI   202      11.319  93.851  64.921  1.00  0.00    -0.002 A 
HETATM   20  C19 STI   202      10.305  92.872  64.639  1.00  0.00    -0.009 A 
HETATM   21  C20 STI   202      10.033  91.782  65.702  1.00  0.00     0.032 C 
BRANCH  17  22
HETATM   22  N21 STI   202      11.293  96.088  61.864  1.00  0.00    -0.325 N 
HETATM   23  C22 STI   202      12.422  96.219  61.079  1.00  0.00     0.253 C 
HETATM   24  O29 STI   202      13.414  95.523  61.174  1.00  0.00    -0.268 OA
HETATM   25  H   STI   202      10.588  96.908  61.813  1.00  0.00     0.169 HD
BRANCH  23  26
HETATM   26  C23 STI   202      12.465  97.293  60.042  1.00  0.00     0.034 A 
HETATM   27  C25 STI   202      11.363  98.244  59.899  1.00  0.00     0.036 A 
HETATM   28  C26 STI   202      11.421  99.258  58.878  1.00  0.00     0.029 A 
HETATM   29  C27 STI   202      12.577  99.325  58.000  1.00  0.00    -0.011 A 
HETATM   30  C28 STI   202      13.656  98.375  58.166  1.00  0.00    -0.007 A 
HETATM   31  C29 STI   202      13.608  97.378  59.163  1.00  0.00    -0.000 A 
BRANCH  29  32
HETATM   32  C46 STI   202      12.701 100.360  56.878  1.00  0.00     0.273 C 
BRANCH  32  33
HETATM   33  N48 STI   202      13.498  99.987  55.671  1.00  0.00     0.145 N 
HETATM   34  C49 STI   202      14.884 100.623  55.696  1.00  0.00     0.286 C 
HETATM   35  C50 STI   202      15.717 100.217  54.441  1.00  0.00     0.286 C 
HETATM   36  N51 STI   202      14.961 100.619  53.183  1.00  0.00     0.143 N 
HETATM   37  C52 STI   202      13.581  99.981  53.149  1.00  0.00     0.286 C 
HETATM   38  C54 STI   202      15.778 100.296  52.001  1.00  0.00     0.285 C 
HETATM   39  C53 STI   202      12.771 100.368  54.414  1.00  0.00     0.286 C 
ENDBRANCH  32  33
ENDBRANCH  29  32
ENDBRANCH  23  26
ENDBRANCH  17  22
ENDBRANCH  13  15
ENDBRANCH   9  13
ENDBRANCH   5   7
TORSDOF 7
ENDMDL
MODEL 5
REMARK VINA RESULT:     -10.2      1.443      2.217
REMARK  7 active torsions:
REMARK  status: ('A' for Active; 'I' for Inactive)
REMARK    1  A    between atoms: C5_5  and  C7_7 
REMARK    2  A    between atoms: C9_9  and  N13_13 
REMARK    3  A    between atoms: N13_13  and  C14_14 
REMARK    4  A    between atoms: C16_16  and  N21_21 
REMARK       I    between atoms: N21_21  and  C22_22 
REMARK    5  A    between atoms: C22_22  and  C23_23 
REMARK    6  A    between atoms: C27_26  and  C46_30 
REMARK    7  A    between atoms: C46_30  and  N48_31 
ROOT
HETATM    1  C1  STI   202      15.314 100.240  49.969  1.00  0.00    -0.001 A 
HETATM    2  C2  STI   202      16.440 101.045  49.591  1.00  0.00     0.095 A 
HETATM    3  N3  STI   202      17.257 101.618  50.570  1.00  0.00    -0.243 NA
HETATM    4  C4  STI   202      17.034 101.445  51.933  1.00  0.00     0.097 A 
HETATM    5  C5  STI   202      15.914 100.643  52.389  1.00  0.00     0.020 A 
HETATM    6  C6  STI   202      15.053 100.041  51.378  1.00  0.00     0.057 A 
ENDROOT
BRANCH   5   7
HETATM    7  C7  STI   202      15.688 100.473  53.863  1.00  0.00     0.099 A 
HETATM    8  N8  STI   202      14.396 100.217  54.276  1.00  0.00    -0.061 NA
HETATM    9  C9  STI   202      14.078 100.042  55.589  1.00  0.00     0.728 A 
HETATM   10  N10 STI   202      15.070 100.118  56.553  1.00  0.00    -0.059 NA
HETATM   11  C11 STI   202      16.385 100.372  56.202  1.00  0.00     0.120 A 
HETATM   12  C12 STI   202      16.742 100.558  54.841  1.00  0.00     0.041 A 
BRANCH   9  13
HETATM   13  N13 STI   202      12.742  99.783  55.909  1.00  0.00    -0.190 N 
HETATM   14  H   STI   202      12.057  99.528  55.112  1.00  0.00     0.184 HD
BRANCH  13  15
HETATM   15  C14 STI   202      12.256  99.842  57.226  1.00  0.00     0.052 A 
HETATM   16  C15 STI   202      12.675  98.843  58.158  1.00  0.00     0.087 A 
HETATM   17  C16 STI   202      12.206  98.860  59.545  1.00  0.00     0.042 A 
HETATM   18  C17 STI   202      11.318  99.897  59.944  1.00  0.00     0.013 A 
HETATM   19  C18 STI   202      10.889 100.911  59.015  1.00  0.00    -0.002 A 
HETATM   20  C19 STI   202      11.342 100.908  57.651  1.00  0.00    -0.009 A 
HETATM   21  C20 STI   202      10.841 102.034  56.717  1.00  0.00     0.032 C 
BRANCH  17  22
HETATM   22  N21 STI   202      12.588  97.890  60.543  1.00  0.00    -0.325 N 
HETATM   23  C22 STI   202      11.854  96.832  61.043  1.00  0.00     0.253 C 
HETATM   24  O29 STI   202      10.660  96.679  60.873  1.00  0.00    -0.268 OA
HETATM   25  H   STI   202      13.583  98.007  60.955  1.00  0.00     0.169 HD
BRANCH  23  26
HETATM   26  C23 STI   202      12.543  95.795  61.867  1.00  0.00     0.034 A 
HETATM   27  C25 STI   202      13.889  95.336  61.526  1.00  0.00     0.036 A 
HETATM   28  C26 STI   202      14.523  94.321  62.327  1.00  0.00     0.029 A 
HETATM   29  C27 STI   202      13.816  93.764  63.467  1.00  0.00    -0.011 A 
HETATM   30  C28 STI   202      12.487  94.239  63.787  1.00  0.00    -0.007 A 
HETATM   31  C29 STI   202      11.858  95.233  63.007  1.00  0.00    -0.000 A 
BRANCH  29  32
HETATM   32  C46 STI   202      14.415  92.666  64.353  1.00  0.00     0.273 C 
BRANCH  32  33
HETATM   33  N48 STI   202      13.501  91.593  64.846  1.00  0.00     0.145 N 
HETATM   34  C49 STI   202      12.404  91.282  63.834  1.00  0.00     0.286 C 
HETATM   35  C50 STI   202      11.461  90.150  64.349  1.00  0.00     0.286 C 
HETATM   36  N51 STI   202      10.861  90.564  65.684  1.00  0.00     0.143 N 
HETATM   37  C52 STI   202      11.949  90.869  66.701  1.00  0.00     0.286 C 
HETATM   38  C54 STI   202       9.920  89.525  66.137  1.00  0.00     0.285 C 
HETATM   39  C53 STI   202      12.898  91.975  66.168  1.00  0.00     0.286 C 
ENDBRANCH  32  33
ENDBRANCH  29  32
ENDBRANCH  23  26
ENDBRANCH  17  22
ENDBRANCH  13  15
ENDBRANCH   9  13
ENDBRANCH   5   7
TORSDOF 7
ENDMDL
MODEL 6
REMARK VINA RESULT:     -10.2      1.801     13.991
REMARK  7 active torsions:
REMARK  status: ('A' for Active; 'I' for Inactive)
REMARK    1  A    between atoms: C5_5  and  C7_7 
REMARK    2  A    between atoms: C9_9  and  N13_13 
REMARK    3  A    between atoms: N13_13  and  C14_14 
REMARK    4  A    between atoms: C16_16  and  N21_21 
REMARK       I    between atoms: N21_21  and  C22_22 
REMARK    5  A    between atoms: C22_22  and  C23_23 
REMARK    6  A    between atoms: C27_26  and  C46_30 
REMARK    7  A    between atoms: C46_30  and  N48_31 
ROOT
HETATM    1  C1  STI   202       8.191  89.947  70.169  1.00  0.00    -0.001 A 
HETATM    2  C2  STI   202       7.960  88.535  70.274  1.00  0.00     0.095 A 
HETATM    3  N3  STI   202       8.198  87.698  69.179  1.00  0.00    -0.243 NA
HETATM    4  C4  STI   202       8.661  88.173  67.956  1.00  0.00     0.097 A 
HETATM    5  C5  STI   202       8.917  89.590  67.777  1.00  0.00     0.020 A 
HETATM    6  C6  STI   202       8.672  90.474  68.910  1.00  0.00     0.057 A 
ENDROOT
BRANCH   5   7
HETATM    7  C7  STI   202       9.412  90.082  66.447  1.00  0.00     0.099 A 
HETATM    8  N8  STI   202      10.177  91.232  66.448  1.00  0.00    -0.061 NA
HETATM    9  C9  STI   202      10.681  91.764  65.300  1.00  0.00     0.728 A 
HETATM   10  N10 STI   202      10.430  91.146  64.086  1.00  0.00    -0.059 NA
HETATM   11  C11 STI   202       9.670  89.989  64.021  1.00  0.00     0.120 A 
HETATM   12  C12 STI   202       9.134  89.415  65.202  1.00  0.00     0.041 A 
BRANCH   9  13
HETATM   13  N13 STI   202      11.446  92.929  65.401  1.00  0.00    -0.190 N 
HETATM   14  H   STI   202      11.214  93.638  66.184  1.00  0.00     0.184 HD
BRANCH  13  15
HETATM   15  C14 STI   202      12.506  93.216  64.523  1.00  0.00     0.052 A 
HETATM   16  C15 STI   202      12.286  94.152  63.465  1.00  0.00     0.087 A 
HETATM   17  C16 STI   202      13.356  94.494  62.526  1.00  0.00     0.042 A 
HETATM   18  C17 STI   202      14.623  93.870  62.690  1.00  0.00     0.013 A 
HETATM   19  C18 STI   202      14.859  92.925  63.753  1.00  0.00    -0.002 A 
HETATM   20  C19 STI   202      13.818  92.581  64.683  1.00  0.00    -0.009 A 
HETATM   21  C20 STI   202      14.150  91.564  65.800  1.00  0.00     0.032 C 
BRANCH  17  22
HETATM   22  N21 STI   202      13.212  95.432  61.438  1.00  0.00    -0.325 N 
HETATM   23  C22 STI   202      12.167  96.296  61.177  1.00  0.00     0.253 C 
HETATM   24  O29 STI   202      11.078  96.246  61.717  1.00  0.00    -0.268 OA
HETATM   25  H   STI   202      14.033  95.462  60.733  1.00  0.00     0.169 HD
BRANCH  23  26
HETATM   26  C23 STI   202      12.350  97.369  60.155  1.00  0.00     0.034 A 
HETATM   27  C25 STI   202      11.429  98.504  60.084  1.00  0.00     0.036 A 
HETATM   28  C26 STI   202      11.617  99.515  59.076  1.00  0.00     0.029 A 
HETATM   29  C27 STI   202      12.721  99.396  58.139  1.00  0.00    -0.011 A 
HETATM   30  C28 STI   202      13.621  98.265  58.233  1.00  0.00    -0.007 A 
HETATM   31  C29 STI   202      13.444  97.270  59.218  1.00  0.00    -0.000 A 
BRANCH  29  32
HETATM   32  C46 STI   202      12.972 100.418  57.026  1.00  0.00     0.273 C 
BRANCH  32  33
HETATM   33  N48 STI   202      13.584  99.927  55.754  1.00  0.00     0.145 N 
HETATM   34  C49 STI   202      14.890 100.650  55.444  1.00  0.00     0.286 C 
HETATM   35  C50 STI   202      15.531 100.122  54.124  1.00  0.00     0.286 C 
HETATM   36  N51 STI   202      14.539 100.287  52.982  1.00  0.00     0.143 N 
HETATM   37  C52 STI   202      13.236  99.562  53.281  1.00  0.00     0.286 C 
HETATM   38  C54 STI   202      15.169  99.850  51.724  1.00  0.00     0.285 C 
HETATM   39  C53 STI   202      12.622 100.073  54.610  1.00  0.00     0.286 C 
ENDBRANCH  32  33
ENDBRANCH  29  32
ENDBRANCH  23  26
ENDBRANCH  17  22
ENDBRANCH  13  15
ENDBRANCH   9  13
ENDBRANCH   5   7
TORSDOF 7
ENDMDL
MODEL 7
REMARK VINA RESULT:     -10.1      2.287     12.470
REMARK  7 active torsions:
REMARK  status: ('A' for Active; 'I' for Inactive)
REMARK    1  A    between atoms: C5_5  and  C7_7 
REMARK    2  A    between atoms: C9_9  and  N13_13 
REMARK    3  A    between atoms: N13_13  and  C14_14 
REMARK    4  A    between atoms: C16_16  and  N21_21 
REMARK       I    between atoms: N21_21  and  C22_22 
REMARK    5  A    between atoms: C22_22  and  C23_23 
REMARK    6  A    between atoms: C27_26  and  C46_30 
REMARK    7  A    between atoms: C46_30  and  N48_31 
ROOT
HETATM    1  C1  STI   202       7.811  88.229  61.464  1.00  0.00    -0.001 A 
HETATM    2  C2  STI   202       6.835  88.655  60.502  1.00  0.00     0.095 A 
HETATM    3  N3  STI   202       6.305  89.948  60.561  1.00  0.00    -0.243 NA
HETATM    4  C4  STI   202       6.683  90.873  61.529  1.00  0.00     0.097 A 
HETATM    5  C5  STI   202       7.666  90.512  62.534  1.00  0.00     0.020 A 
HETATM    6  C6  STI   202       8.225  89.166  62.485  1.00  0.00     0.057 A 
ENDROOT
BRANCH   5   7
HETATM    7  C7  STI   202       8.056  91.524  63.572  1.00  0.00     0.099 A 
HETATM    8  N8  STI   202       9.336  91.439  64.082  1.00  0.00    -0.061 NA
HETATM    9  C9  STI   202       9.797  92.308  65.025  1.00  0.00     0.728 A 
HETATM   10  N10 STI   202       8.970  93.313  65.497  1.00  0.00    -0.059 NA
HETATM   11  C11 STI   202       7.675  93.450  65.025  1.00  0.00     0.120 A 
HETATM   12  C12 STI   202       7.172  92.558  64.042  1.00  0.00     0.041 A 
BRANCH   9  13
HETATM   13  N13 STI   202      11.110  92.145  65.477  1.00  0.00    -0.190 N 
HETATM   14  H   STI   202      11.276  91.643  66.421  1.00  0.00     0.184 HD
BRANCH  13  15
HETATM   15  C14 STI   202      12.222  92.610  64.754  1.00  0.00     0.052 A 
HETATM   16  C15 STI   202      12.010  93.562  63.709  1.00  0.00     0.087 A 
HETATM   17  C16 STI   202      13.133  94.086  62.928  1.00  0.00     0.042 A 
HETATM   18  C17 STI   202      14.442  93.622  63.233  1.00  0.00     0.013 A 
HETATM   19  C18 STI   202      14.669  92.663  64.285  1.00  0.00    -0.002 A 
HETATM   20  C19 STI   202      13.577  92.142  65.060  1.00  0.00    -0.009 A 
HETATM   21  C20 STI   202      13.902  91.120  66.176  1.00  0.00     0.032 C 
BRANCH  17  22
HETATM   22  N21 STI   202      13.001  95.052  61.863  1.00  0.00    -0.325 N 
HETATM   23  C22 STI   202      11.937  95.887  61.584  1.00  0.00     0.253 C 
HETATM   24  O29 STI   202      10.829  95.781  62.074  1.00  0.00    -0.268 OA
HETATM   25  H   STI   202      13.849  95.132  61.195  1.00  0.00     0.169 HD
BRANCH  23  26
HETATM   26  C23 STI   202      12.122  96.996  60.603  1.00  0.00     0.034 A 
HETATM   27  C25 STI   202      11.183  98.117  60.548  1.00  0.00     0.036 A 
HETATM   28  C26 STI   202      11.375  99.165  59.579  1.00  0.00     0.029 A 
HETATM   29  C27 STI   202      12.502  99.096  58.664  1.00  0.00    -0.011 A 
HETATM   30  C28 STI   202      13.419  97.979  58.742  1.00  0.00    -0.007 A 
HETATM   31  C29 STI   202      13.239  96.948  59.688  1.00  0.00    -0.000 A 
BRANCH  29  32
HETATM   32  C46 STI   202      12.759 100.160  57.592  1.00  0.00     0.273 C 
BRANCH  32  33
HETATM   33  N48 STI   202      13.254  99.701  56.260  1.00  0.00     0.145 N 
HETATM   34  C49 STI   202      14.645 100.248  55.959  1.00  0.00     0.286 C 
HETATM   35  C50 STI   202      15.163  99.753  54.574  1.00  0.00     0.286 C 
HETATM   36  N51 STI   202      14.176 100.163  53.492  1.00  0.00     0.143 N 
HETATM   37  C52 STI   202      12.788  99.614  53.781  1.00  0.00     0.286 C 
HETATM   38  C54 STI   202      14.698  99.753  52.177  1.00  0.00     0.285 C 
HETATM   39  C53 STI   202      12.294 100.089  55.173  1.00  0.00     0.286 C 
ENDBRANCH  32  33
ENDBRANCH  29  32
ENDBRANCH  23  26
ENDBRANCH  17  22
ENDBRANCH  13  15
ENDBRANCH   9  13
ENDBRANCH   5   7
TORSDOF 7
ENDMDL
MODEL 8
REMARK VINA RESULT:     -10.0      3.072     12.097
REMARK  7 active torsions:
REMARK  status: ('A' for Active; 'I' for Inactive)
REMARK    1  A    between atoms: C5_5  and  C7_7 
REMARK    2  A    between atoms: C9_9  and  N13_13 
REMARK    3  A    between atoms: N13_13  and  C14_14 
REMARK    4  A    between atoms: C16_16  and  N21_21 
REMARK       I    between atoms: N21_21  and  C22_22 
REMARK    5  A    between atoms: C22_22  and  C23_23 
REMARK    6  A    between atoms: C27_26  and  C46_30 
REMARK    7  A    between atoms: C46_30  and  N48_31 
ROOT
HETATM    1  C1  STI   202       5.830  94.220  59.691  1.00  0.00    -0.001 A 
HETATM    2  C2  STI   202       4.697  93.587  59.079  1.00  0.00     0.095 A 
HETATM    3  N3  STI   202       4.389  92.255  59.374  1.00  0.00    -0.243 NA
HETATM    4  C4  STI   202       5.143  91.486  60.255  1.00  0.00     0.097 A 
HETATM    5  C5  STI   202       6.302  92.060  60.912  1.00  0.00     0.020 A 
HETATM    6  C6  STI   202       6.636  93.448  60.612  1.00  0.00     0.057 A 
ENDROOT
BRANCH   5   7
HETATM    7  C7  STI   202       7.104  91.211  61.855  1.00  0.00     0.099 A 
HETATM    8  N8  STI   202       7.754  91.860  62.887  1.00  0.00    -0.061 NA
HETATM    9  C9  STI   202       8.505  91.188  63.803  1.00  0.00     0.728 A 
HETATM   10  N10 STI   202       8.632  89.811  63.713  1.00  0.00    -0.059 NA
HETATM   11  C11 STI   202       8.004  89.104  62.701  1.00  0.00     0.120 A 
HETATM   12  C12 STI   202       7.215  89.781  61.735  1.00  0.00     0.041 A 
BRANCH   9  13
HETATM   13  N13 STI   202       9.122  91.931  64.813  1.00  0.00    -0.190 N 
HETATM   14  H   STI   202       8.641  91.994  65.780  1.00  0.00     0.184 HD
BRANCH  13  15
HETATM   15  C14 STI   202      10.343  92.600  64.621  1.00  0.00     0.052 A 
HETATM   16  C15 STI   202      10.393  93.682  63.688  1.00  0.00     0.087 A 
HETATM   17  C16 STI   202      11.636  94.420  63.454  1.00  0.00     0.042 A 
HETATM   18  C17 STI   202      12.798  94.032  64.177  1.00  0.00     0.013 A 
HETATM   19  C18 STI   202      12.761  92.944  65.122  1.00  0.00    -0.002 A 
HETATM   20  C19 STI   202      11.547  92.212  65.363  1.00  0.00    -0.009 A 
HETATM   21  C20 STI   202      11.586  91.061  66.396  1.00  0.00     0.032 C 
BRANCH  17  22
HETATM   22  N21 STI   202      11.764  95.525  62.534  1.00  0.00    -0.325 N 
HETATM   23  C22 STI   202      12.765  95.770  61.616  1.00  0.00     0.253 C 
HETATM   24  O29 STI   202      13.836  95.193  61.590  1.00  0.00    -0.268 OA
HETATM   25  H   STI   202      10.968  96.258  62.568  1.00  0.00     0.169 HD
BRANCH  23  26
HETATM   26  C23 STI   202      12.558  96.823  60.578  1.00  0.00     0.034 A 
HETATM   27  C25 STI   202      11.338  97.630  60.560  1.00  0.00     0.036 A 
HETATM   28  C26 STI   202      11.154  98.626  59.537  1.00  0.00     0.029 A 
HETATM   29  C27 STI   202      12.186  98.820  58.532  1.00  0.00    -0.011 A 
HETATM   30  C28 STI   202      13.387  98.012  58.575  1.00  0.00    -0.007 A 
HETATM   31  C29 STI   202      13.575  97.033  59.574  1.00  0.00    -0.000 A 
BRANCH  29  32
HETATM   32  C46 STI   202      12.053  99.844  57.400  1.00  0.00     0.273 C 
BRANCH  32  33
HETATM   33  N48 STI   202      12.735  99.542  56.106  1.00  0.00     0.145 N 
HETATM   34  C49 STI   202      13.969 100.415  55.904  1.00  0.00     0.286 C 
HETATM   35  C50 STI   202      14.684 100.085  54.558  1.00  0.00     0.286 C 
HETATM   36  N51 STI   202      13.703 100.266  53.410  1.00  0.00     0.143 N 
HETATM   37  C52 STI   202      12.472  99.393  53.600  1.00  0.00     0.286 C 
HETATM   38  C54 STI   202      14.397 100.019  52.134  1.00  0.00     0.285 C 
HETATM   39  C53 STI   202      11.785  99.708  54.954  1.00  0.00     0.286 C 
ENDBRANCH  32  33
ENDBRANCH  29  32
ENDBRANCH  23  26
ENDBRANCH  17  22
ENDBRANCH  13  15
ENDBRANCH   9  13
ENDBRANCH   5   7
TORSDOF 7
ENDMDL
